2724385
  -OEChem-07092510382D

119126  0     1  0  0  0  0  0999 V2000
   18.3182    1.5438    0.0000 O   0  0  0  0  0  0  0  0  0  0  0  0
   17.4387   -1.9529    0.0000 O   0  0  0  0  0  0  0  0  0  0  0  0
   12.9292    2.6169    0.0000 O   0  0  0  0  0  0  0  0  0  0  0  0
   19.5591   -3.3344    0.0000 O   0  0  0  0  0  0  0  0  0  0  0  0
   11.1972    2.6169    0.0000 O   0  0  0  0  0  0  0  0  0  0  0  0
   21.3186   -3.6169    0.0000 O   0  0  0  0  0  0  0  0  0  0  0  0
   11.1972   -0.3831    0.0000 O   0  0  0  0  0  0  0  0  0  0  0  0
    9.4651    0.6169    0.0000 O   0  0  0  0  0  0  0  0  0  0  0  0
    8.5991    2.1169    0.0000 O   0  0  0  0  0  0  0  0  0  0  0  0
    6.0010    2.6169    0.0000 O   0  0  0  0  0  0  0  0  0  0  0  0
    6.0010    0.6169    0.0000 O   0  0  0  0  0  0  0  0  0  0  0  0
    5.1350    1.1169    0.0000 O   0  0  0  0  0  0  0  0  0  0  0  0
    2.5369    2.6169    0.0000 O   0  0  0  0  0  0  0  0  0  0  0  0
    2.5369    0.6169    0.0000 O   0  0  0  0  0  0  0  0  0  0  0  0
   18.3144    0.5438    0.0000 C   0  0  1  0  0  0  0  0  0  0  0  0
   17.4503    1.0471    0.0000 C   0  0  1  0  0  0  0  0  0  0  0  0
   16.5823    0.5504    0.0000 C   0  0  1  0  0  0  0  0  0  0  0  0
   18.3105   -0.4562    0.0000 C   0  0  2  0  0  0  0  0  0  0  0  0
   15.6743    1.0608    0.0000 C   0  0  2  0  0  0  0  0  0  0  0  0
   15.6703    2.1024    0.0000 C   0  0  2  0  0  0  0  0  0  0  0  0
   17.4426   -0.9529    0.0000 C   0  0  1  0  0  0  0  0  0  0  0  0
   16.5785   -0.4496    0.0000 C   0  0  0  0  0  0  0  0  0  0  0  0
   19.2556   -0.7646    0.0000 C   0  0  2  0  0  0  0  0  0  0  0  0
   19.2618    0.8448    0.0000 C   0  0  0  0  0  0  0  0  0  0  0  0
   17.4704    2.0885    0.0000 C   0  0  0  0  0  0  0  0  0  0  0  0
   16.5744    2.6197    0.0000 C   0  0  0  0  0  0  0  0  0  0  0  0
   19.8423    0.0379    0.0000 C   0  0  0  0  0  0  0  0  0  0  0  0
   14.7453    0.5003    0.0000 C   0  0  0  0  0  0  0  0  0  0  0  0
   18.3067   -1.4562    0.0000 C   0  0  0  0  0  0  0  0  0  0  0  0
   14.7370    2.6557    0.0000 C   0  0  0  0  0  0  0  0  0  0  0  0
   15.6782    0.0608    0.0000 C   0  0  0  0  0  0  0  0  0  0  0  0
   13.7994    1.0319    0.0000 C   0  0  0  0  0  0  0  0  0  0  0  0
   13.7953    2.1169    0.0000 C   0  0  2  0  0  0  0  0  0  0  0  0
   19.5626   -1.7163    0.0000 C   0  0  0  0  0  0  0  0  0  0  0  0
   18.9731   -2.5241    0.0000 C   0  0  0  0  0  0  0  0  0  0  0  0
   20.5130   -2.0274    0.0000 C   0  0  0  0  0  0  0  0  0  0  0  0
   20.5108   -3.0274    0.0000 C   0  0  0  0  0  0  0  0  0  0  0  0
   12.0632    2.1169    0.0000 C   0  0  2  0  0  0  0  0  0  0  0  0
   12.0632    1.1169    0.0000 C   0  0  0  0  0  0  0  0  0  0  0  0
   11.1972    0.6169    0.0000 C   0  0  1  0  0  0  0  0  0  0  0  0
   10.3312    2.1169    0.0000 C   0  0  1  0  0  0  0  0  0  0  0  0
   10.3312    1.1169    0.0000 C   0  0  1  0  0  0  0  0  0  0  0  0
    9.4651    2.6169    0.0000 C   0  0  0  0  0  0  0  0  0  0  0  0
    8.5991    1.1169    0.0000 C   0  0  2  0  0  0  0  0  0  0  0  0
    7.7331    0.6169    0.0000 C   0  0  0  0  0  0  0  0  0  0  0  0
    6.8671    1.1169    0.0000 C   0  0  1  0  0  0  0  0  0  0  0  0
    7.7331    2.6169    0.0000 C   0  0  1  0  0  0  0  0  0  0  0  0
    6.8671    2.1169    0.0000 C   0  0  1  0  0  0  0  0  0  0  0  0
    7.7331    3.6169    0.0000 C   0  0  0  0  0  0  0  0  0  0  0  0
    5.1350    2.1169    0.0000 C   0  0  2  0  0  0  0  0  0  0  0  0
    4.2690    2.6169    0.0000 C   0  0  0  0  0  0  0  0  0  0  0  0
    3.4030    2.1169    0.0000 C   0  0  1  0  0  0  0  0  0  0  0  0
    4.2690    0.6169    0.0000 C   0  0  1  0  0  0  0  0  0  0  0  0
    3.4030    1.1169    0.0000 C   0  0  1  0  0  0  0  0  0  0  0  0
    4.2690   -0.3831    0.0000 C   0  0  0  0  0  0  0  0  0  0  0  0
   18.1913    1.4636    0.0000 H   0  0  0  0  0  0  0  0  0  0  0  0
   17.3168    0.1226    0.0000 H   0  0  0  0  0  0  0  0  0  0  0  0
   15.6768    2.9524    0.0000 H   0  0  0  0  0  0  0  0  0  0  0  0
   16.9044   -1.2608    0.0000 H   0  0  0  0  0  0  0  0  0  0  0  0
   15.9683   -0.3395    0.0000 H   0  0  0  0  0  0  0  0  0  0  0  0
   16.3642   -1.0314    0.0000 H   0  0  0  0  0  0  0  0  0  0  0  0
   19.8677   -0.8632    0.0000 H   0  0  0  0  0  0  0  0  0  0  0  0
   19.8003    1.1520    0.0000 H   0  0  0  0  0  0  0  0  0  0  0  0
   19.0129    1.4127    0.0000 H   0  0  0  0  0  0  0  0  0  0  0  0
   18.0791    1.9707    0.0000 H   0  0  0  0  0  0  0  0  0  0  0  0
   17.6906    2.6681    0.0000 H   0  0  0  0  0  0  0  0  0  0  0  0
   16.9771    3.0911    0.0000 H   0  0  0  0  0  0  0  0  0  0  0  0
   16.1789    3.0972    0.0000 H   0  0  0  0  0  0  0  0  0  0  0  0
   20.3015   -0.3786    0.0000 H   0  0  0  0  0  0  0  0  0  0  0  0
   20.3047    0.4508    0.0000 H   0  0  0  0  0  0  0  0  0  0  0  0
   14.3535    0.0197    0.0000 H   0  0  0  0  0  0  0  0  0  0  0  0
   15.1517    0.0321    0.0000 H   0  0  0  0  0  0  0  0  0  0  0  0
   17.6867   -1.4538    0.0000 H   0  0  0  0  0  0  0  0  0  0  0  0
   18.3043   -2.0762    0.0000 H   0  0  0  0  0  0  0  0  0  0  0  0
   18.9267   -1.4586    0.0000 H   0  0  0  0  0  0  0  0  0  0  0  0
   15.1398    3.1271    0.0000 H   0  0  0  0  0  0  0  0  0  0  0  0
   14.3415    3.1332    0.0000 H   0  0  0  0  0  0  0  0  0  0  0  0
   15.0582    0.0584    0.0000 H   0  0  0  0  0  0  0  0  0  0  0  0
   15.6805   -0.5592    0.0000 H   0  0  0  0  0  0  0  0  0  0  0  0
   16.2981    0.0632    0.0000 H   0  0  0  0  0  0  0  0  0  0  0  0
   13.1882    1.1356    0.0000 H   0  0  0  0  0  0  0  0  0  0  0  0
   13.5926    0.4474    0.0000 H   0  0  0  0  0  0  0  0  0  0  0  0
   13.7965    2.7369    0.0000 H   0  0  0  0  0  0  0  0  0  0  0  0
   18.8564    1.8517    0.0000 H   0  0  0  0  0  0  0  0  0  0  0  0
   16.9006   -2.2608    0.0000 H   0  0  0  0  0  0  0  0  0  0  0  0
   18.5132   -2.1083    0.0000 H   0  0  0  0  0  0  0  0  0  0  0  0
   18.5114   -2.9380    0.0000 H   0  0  0  0  0  0  0  0  0  0  0  0
   21.0153   -1.6640    0.0000 H   0  0  0  0  0  0  0  0  0  0  0  0
   12.6002    1.8069    0.0000 H   0  0  0  0  0  0  0  0  0  0  0  0
   12.2753    0.5343    0.0000 H   0  0  0  0  0  0  0  0  0  0  0  0
   12.6738    1.2245    0.0000 H   0  0  0  0  0  0  0  0  0  0  0  0
   11.7341    0.3069    0.0000 H   0  0  0  0  0  0  0  0  0  0  0  0
   10.3312    2.7369    0.0000 H   0  0  0  0  0  0  0  0  0  0  0  0
    9.7942    1.4269    0.0000 H   0  0  0  0  0  0  0  0  0  0  0  0
    9.7751    3.1538    0.0000 H   0  0  0  0  0  0  0  0  0  0  0  0
    8.9282    2.9269    0.0000 H   0  0  0  0  0  0  0  0  0  0  0  0
    9.1551    2.0799    0.0000 H   0  0  0  0  0  0  0  0  0  0  0  0
   11.7341   -0.6931    0.0000 H   0  0  0  0  0  0  0  0  0  0  0  0
    8.5991    0.4969    0.0000 H   0  0  0  0  0  0  0  0  0  0  0  0
    7.3346    0.1419    0.0000 H   0  0  0  0  0  0  0  0  0  0  0  0
    8.1316    0.1419    0.0000 H   0  0  0  0  0  0  0  0  0  0  0  0
    6.3301    1.4269    0.0000 H   0  0  0  0  0  0  0  0  0  0  0  0
    8.2700    2.9269    0.0000 H   0  0  0  0  0  0  0  0  0  0  0  0
    6.8671    2.7369    0.0000 H   0  0  0  0  0  0  0  0  0  0  0  0
    8.3531    3.6169    0.0000 H   0  0  0  0  0  0  0  0  0  0  0  0
    7.7331    4.2369    0.0000 H   0  0  0  0  0  0  0  0  0  0  0  0
    7.1131    3.6169    0.0000 H   0  0  0  0  0  0  0  0  0  0  0  0
    6.0010   -0.0031    0.0000 H   0  0  0  0  0  0  0  0  0  0  0  0
    5.1350    2.7369    0.0000 H   0  0  0  0  0  0  0  0  0  0  0  0
    4.6675    3.0918    0.0000 H   0  0  0  0  0  0  0  0  0  0  0  0
    3.8705    3.0918    0.0000 H   0  0  0  0  0  0  0  0  0  0  0  0
    3.4030    2.7369    0.0000 H   0  0  0  0  0  0  0  0  0  0  0  0
    4.8059    0.3069    0.0000 H   0  0  0  0  0  0  0  0  0  0  0  0
    2.8660    1.4269    0.0000 H   0  0  0  0  0  0  0  0  0  0  0  0
    3.6490   -0.3831    0.0000 H   0  0  0  0  0  0  0  0  0  0  0  0
    4.2690   -1.0031    0.0000 H   0  0  0  0  0  0  0  0  0  0  0  0
    4.8890   -0.3831    0.0000 H   0  0  0  0  0  0  0  0  0  0  0  0
    2.5369    3.2369    0.0000 H   0  0  0  0  0  0  0  0  0  0  0  0
    2.0000    0.9269    0.0000 H   0  0  0  0  0  0  0  0  0  0  0  0
 15  1  1  6  0  0  0
  1 84  1  0  0  0  0
 21  2  1  6  0  0  0
  2 85  1  0  0  0  0
 33  3  1  6  0  0  0
 38  3  1  1  0  0  0
  4 35  1  0  0  0  0
  4 37  1  0  0  0  0
  5 38  1  0  0  0  0
  5 41  1  0  0  0  0
  6 37  2  0  0  0  0
 40  7  1  6  0  0  0
  7 98  1  0  0  0  0
 42  8  1  6  0  0  0
 44  8  1  1  0  0  0
  9 44  1  0  0  0  0
  9 47  1  0  0  0  0
 48 10  1  6  0  0  0
 50 10  1  6  0  0  0
 46 11  1  6  0  0  0
 11108  1  0  0  0  0
 12 50  1  0  0  0  0
 12 53  1  0  0  0  0
 52 13  1  1  0  0  0
 13118  1  0  0  0  0
 54 14  1  1  0  0  0
 14119  1  0  0  0  0
 15 16  1  0  0  0  0
 15 18  1  0  0  0  0
 15 24  1  0  0  0  0
 16 17  1  0  0  0  0
 16 25  1  0  0  0  0
 16 56  1  6  0  0  0
 17 19  1  0  0  0  0
 17 22  1  0  0  0  0
 17 57  1  1  0  0  0
 18 21  1  0  0  0  0
 18 23  1  0  0  0  0
 18 29  1  6  0  0  0
 19 20  1  0  0  0  0
 19 28  1  0  0  0  0
 19 31  1  6  0  0  0
 20 26  1  0  0  0  0
 20 30  1  0  0  0  0
 20 58  1  6  0  0  0
 21 22  1  0  0  0  0
 21 59  1  0  0  0  0
 22 60  1  0  0  0  0
 22 61  1  0  0  0  0
 23 27  1  0  0  0  0
 23 34  1  6  0  0  0
 23 62  1  0  0  0  0
 24 27  1  0  0  0  0
 24 63  1  0  0  0  0
 24 64  1  0  0  0  0
 25 26  1  0  0  0  0
 25 65  1  0  0  0  0
 25 66  1  0  0  0  0
 26 67  1  0  0  0  0
 26 68  1  0  0  0  0
 27 69  1  0  0  0  0
 27 70  1  0  0  0  0
 28 32  1  0  0  0  0
 28 71  1  0  0  0  0
 28 72  1  0  0  0  0
 29 73  1  0  0  0  0
 29 74  1  0  0  0  0
 29 75  1  0  0  0  0
 30 33  1  0  0  0  0
 30 76  1  0  0  0  0
 30 77  1  0  0  0  0
 31 78  1  0  0  0  0
 31 79  1  0  0  0  0
 31 80  1  0  0  0  0
 32 33  1  0  0  0  0
 32 81  1  0  0  0  0
 32 82  1  0  0  0  0
 33 83  1  0  0  0  0
 34 35  1  0  0  0  0
 34 36  2  0  0  0  0
 35 86  1  0  0  0  0
 35 87  1  0  0  0  0
 36 37  1  0  0  0  0
 36 88  1  0  0  0  0
 38 39  1  0  0  0  0
 38 89  1  0  0  0  0
 39 40  1  0  0  0  0
 39 90  1  0  0  0  0
 39 91  1  0  0  0  0
 40 42  1  0  0  0  0
 40 92  1  0  0  0  0
 41 42  1  0  0  0  0
 41 43  1  1  0  0  0
 41 93  1  0  0  0  0
 42 94  1  0  0  0  0
 43 95  1  0  0  0  0
 43 96  1  0  0  0  0
 43 97  1  0  0  0  0
 44 45  1  0  0  0  0
 44 99  1  0  0  0  0
 45 46  1  0  0  0  0
 45100  1  0  0  0  0
 45101  1  0  0  0  0
 46 48  1  0  0  0  0
 46102  1  0  0  0  0
 47 48  1  0  0  0  0
 47 49  1  1  0  0  0
 47103  1  0  0  0  0
 48104  1  0  0  0  0
 49105  1  0  0  0  0
 49106  1  0  0  0  0
 49107  1  0  0  0  0
 50 51  1  0  0  0  0
 50109  1  0  0  0  0
 51 52  1  0  0  0  0
 51110  1  0  0  0  0
 51111  1  0  0  0  0
 52 54  1  0  0  0  0
 52112  1  0  0  0  0
 53 54  1  0  0  0  0
 53 55  1  6  0  0  0
 53113  1  0  0  0  0
 54114  1  0  0  0  0
 55115  1  0  0  0  0
 55116  1  0  0  0  0
 55117  1  0  0  0  0
M  END
> <PUBCHEM_COMPOUND_CID>
2724385

> <PUBCHEM_COMPOUND_CANONICALIZED>
1

> <PUBCHEM_CACTVS_COMPLEXITY>
1450

> <PUBCHEM_CACTVS_HBOND_ACCEPTOR>
14

> <PUBCHEM_CACTVS_HBOND_DONOR>
6

> <PUBCHEM_CACTVS_ROTATABLE_BOND>
7

> <PUBCHEM_CACTVS_SUBSKEYS>
AAADcfB8PAAAAAAAAAAAAAAAAAAAAYIAAAA0aNECAAAAAGDAAAAAGgAACAAAD1SwgAMCCAAABgCIAiDSCAAAAAAgAAAACAAAAEgRFAIAIQAiUAAFgAAPIQPA4PwPgAAAAAAAAADAAAYQADAAAYAADAAAAA==

> <PUBCHEM_IUPAC_OPENEYE_NAME>
3-[(3S,5R,8R,9S,10S,12R,13S,14S,17R)-3-[(2R,4S,5S,6R)-5-[(2S,4S,5S,6R)-5-[(2S,4S,5S,6R)-4,5-dihydroxy-6-methyl-tetrahydropyran-2-yl]oxy-4-hydroxy-6-methyl-tetrahydropyran-2-yl]oxy-4-hydroxy-6-methyl-tetrahydropyran-2-yl]oxy-12,14-dihydroxy-10,13-dimethyl-1,2,3,4,5,6,7,8,9,11,12,15,16,17-tetradecahydrocyclopenta[a]phenanthren-17-yl]-2H-furan-5-one

> <PUBCHEM_IUPAC_CAS_NAME>
3-[(3S,5R,8R,9S,10S,12R,13S,14S,17R)-3-[[(2R,4S,5S,6R)-5-[[(2S,4S,5S,6R)-5-[[(2S,4S,5S,6R)-4,5-dihydroxy-6-methyl-2-oxanyl]oxy]-4-hydroxy-6-methyl-2-oxanyl]oxy]-4-hydroxy-6-methyl-2-oxanyl]oxy]-12,14-dihydroxy-10,13-dimethyl-1,2,3,4,5,6,7,8,9,11,12,15,16,17-tetradecahydrocyclopenta[a]phenanthren-17-yl]-2H-furan-5-one

> <PUBCHEM_IUPAC_NAME_MARKUP>
3-[(3<I>S</I>,5<I>R</I>,8<I>R</I>,9<I>S</I>,10<I>S</I>,12<I>R</I>,13<I>S</I>,14<I>S</I>,17<I>R</I>)-3-[(2<I>R</I>,4<I>S</I>,5<I>S</I>,6<I>R</I>)-5-[(2<I>S</I>,4<I>S</I>,5<I>S</I>,6<I>R</I>)-5-[(2<I>S</I>,4<I>S</I>,5<I>S</I>,6<I>R</I>)-4,5-dihydroxy-6-methyloxan-2-yl]oxy-4-hydroxy-6-methyloxan-2-yl]oxy-4-hydroxy-6-methyloxan-2-yl]oxy-12,14-dihydroxy-10,13-dimethyl-1,2,3,4,5,6,7,8,9,11,12,15,16,17-tetradecahydrocyclopenta[a]phenanthren-17-yl]-2<I>H</I>-furan-5-one

> <PUBCHEM_IUPAC_NAME>
3-[(3S,5R,8R,9S,10S,12R,13S,14S,17R)-3-[(2R,4S,5S,6R)-5-[(2S,4S,5S,6R)-5-[(2S,4S,5S,6R)-4,5-dihydroxy-6-methyloxan-2-yl]oxy-4-hydroxy-6-methyloxan-2-yl]oxy-4-hydroxy-6-methyloxan-2-yl]oxy-12,14-dihydroxy-10,13-dimethyl-1,2,3,4,5,6,7,8,9,11,12,15,16,17-tetradecahydrocyclopenta[a]phenanthren-17-yl]-2H-furan-5-one

> <PUBCHEM_IUPAC_SYSTEMATIC_NAME>
3-[(3S,5R,8R,9S,10S,12R,13S,14S,17R)-10,13-dimethyl-3-[(2R,4S,5S,6R)-6-methyl-5-[(2S,4S,5S,6R)-6-methyl-5-[(2S,4S,5S,6R)-6-methyl-4,5-bis(oxidanyl)oxan-2-yl]oxy-4-oxidanyl-oxan-2-yl]oxy-4-oxidanyl-oxan-2-yl]oxy-12,14-bis(oxidanyl)-1,2,3,4,5,6,7,8,9,11,12,15,16,17-tetradecahydrocyclopenta[a]phenanthren-17-yl]-2H-furan-5-one

> <PUBCHEM_IUPAC_TRADITIONAL_NAME>
3-[(3S,5R,8R,9S,10S,12R,13S,14S,17R)-3-[(2R,4S,5S,6R)-5-[(2S,4S,5S,6R)-5-[(2S,4S,5S,6R)-4,5-dihydroxy-6-methyl-tetrahydropyran-2-yl]oxy-4-hydroxy-6-methyl-tetrahydropyran-2-yl]oxy-4-hydroxy-6-methyl-tetrahydropyran-2-yl]oxy-12,14-dihydroxy-10,13-dimethyl-1,2,3,4,5,6,7,8,9,11,12,15,16,17-tetradecahydrocyclopenta[a]phenanthren-17-yl]-2H-furan-5-one

> <PUBCHEM_IUPAC_INCHI>
InChI=1S/C41H64O14/c1-19-36(47)28(42)15-34(50-19)54-38-21(3)52-35(17-30(38)44)55-37-20(2)51-33(16-29(37)43)53-24-8-10-39(4)23(13-24)6-7-26-27(39)14-31(45)40(5)25(9-11-41(26,40)48)22-12-32(46)49-18-22/h12,19-21,23-31,33-38,42-45,47-48H,6-11,13-18H2,1-5H3/t19-,20-,21-,23-,24+,25-,26-,27+,28+,29+,30+,31-,33+,34+,35+,36-,37-,38-,39+,40+,41+/m1/s1

> <PUBCHEM_IUPAC_INCHIKEY>
LTMHDMANZUZIPE-PUGKRICDSA-N

> <PUBCHEM_XLOGP3>
1.3

> <PUBCHEM_EXACT_MASS>
780.42960671

> <PUBCHEM_MOLECULAR_FORMULA>
C41H64O14

> <PUBCHEM_MOLECULAR_WEIGHT>
780.9

> <PUBCHEM_SMILES>
C[C@@H]1[C@H]([C@H](C[C@@H](O1)O[C@@H]2[C@H](O[C@H](C[C@@H]2O)O[C@@H]3[C@H](O[C@H](C[C@@H]3O)O[C@H]4CC[C@]5([C@@H](C4)CC[C@@H]6[C@@H]5C[C@H]([C@]7([C@@]6(CC[C@@H]7C8=CC(=O)OC8)O)C)O)C)C)C)O)O

> <PUBCHEM_CONNECTIVITY_SMILES>
CC1C(C(CC(O1)OC2C(OC(CC2O)OC3C(OC(CC3O)OC4CCC5(C(C4)CCC6C5CC(C7(C6(CCC7C8=CC(=O)OC8)O)C)O)C)C)C)O)O

> <PUBCHEM_CACTVS_TPSA>
203

> <PUBCHEM_MONOISOTOPIC_WEIGHT>
780.42960671

> <PUBCHEM_TOTAL_CHARGE>
0

> <PUBCHEM_HEAVY_ATOM_COUNT>
55

> <PUBCHEM_ATOM_DEF_STEREO_COUNT>
21

> <PUBCHEM_ATOM_UDEF_STEREO_COUNT>
0

> <PUBCHEM_BOND_DEF_STEREO_COUNT>
0

> <PUBCHEM_BOND_UDEF_STEREO_COUNT>
0

> <PUBCHEM_ISOTOPIC_ATOM_COUNT>
0

> <PUBCHEM_COMPONENT_COUNT>
1

> <PUBCHEM_CACTVS_TAUTO_COUNT>
-1

> <PUBCHEM_COORDINATE_TYPE>
1
5
255

> <PUBCHEM_BONDANNOTATIONS>
15  1  6
48  10  6
50  10  6
46  11  6
52  13  5
54  14  5
16  56  6
17  57  5
18  29  6
19  31  6
21  2  6
20  58  6
23  34  6
33  3  6
38  3  5
41  43  5
47  49  5
53  55  6
40  7  6
42  8  6
44  8  5

$$$$
